powerflow/autotest/test_link_status.glm
//4-node-esque system to test multiple islands/solutions approach
//Uses the status variable of links to open/close links
//
// Sequence of events
// 00:00:00 - Line "init_removal_test" switched out - "node_removed" should be zero all simulation
// 00:00:10 - 00:00:20 - switch3_3B opened, effectively removing all of the "first system" for that duration
// 00:00:30 - 00:00:45 - ol34 set to "OPEN" - effectively islands load4
// 00:00:55 - 00:01:15 - switch2B_2C set to "OPEN" - effectively islands "third system"
// 00:01:30 - 00:01:50 - ug34C set to "OPEN" - effectively islands load4C

clock {
	timezone EST+5EDT;
	starttime '2000-01-01 0:00:00';
	stoptime '2000-01-01 0:02:00';
}

module assert;
module tape;
module reliability {
	report_event_log false;
}
module powerflow {
	line_capacitance false;
	solver_method NR;
	line_limits false;
}

object overhead_line_conductor {
	name olc100;
	geometric_mean_radius 0.0244 ft;
	resistance 0.306 Ohm/mile;
}

object overhead_line_conductor {
	name olc101;
	geometric_mean_radius 0.00814 ft;
	resistance 0.592 Ohm/mile;
}

object line_spacing {
	name ls200;
	distance_AB 2.5 ft;
	distance_BC 4.5 ft;
	distance_AC 7.0 ft;
	distance_AN 5.656854 ft; 
	distance_BN 4.272002 ft;
	distance_CN 5.0 ft;
}

object line_configuration {
	name lc300;
	conductor_A olc100;
	conductor_B olc100;
	conductor_C olc100;
	conductor_N olc101;
	spacing ls200;
}

object transformer_configuration {
	name tc400;
	connect_type WYE_WYE;
	power_rating 6000;
	primary_voltage 12470;
	secondary_voltage 4160;
	resistance 0.01;
	reactance 0.06;
}

// Phase Conductor for 721: 1,000,000 AA,CN
object underground_line_conductor { 
	name ulc7210;
	outer_diameter 1.980000;
	conductor_gmr 0.036800;
	conductor_diameter 1.150000;
	conductor_resistance 0.105000;
	neutral_gmr 0.003310;
	neutral_resistance 5.903000;
	neutral_diameter 0.102000;
	neutral_strands 20.000000;
}

// underground line spacing: spacing id 515 
object line_spacing {
	name ls515;
	distance_AB 0.500000;
	distance_BC 0.500000;
	distance_AC 1.000000;
}

//line configurations:
object line_configuration {
	name lc721;
	conductor_A ulc7210;
	conductor_B ulc7210;
	conductor_C ulc7210;
	spacing ls515;
}

//Fault check option
object fault_check {
	name base_fault_check_object;
	check_mode ONCHANGE;
	eventgen_object testgendev;
	strictly_radial false;
	grid_association false;	//Flag to ensure non-monolithic islands
	output_filename testtopo.txt;
	//full_output_file true;
}

//Eventgen-triggered switch, for testing
object eventgen {
	name testgendev;
	fault_type "SW-ABC";     //Type of fault for the object to induce
	manual_outages "switch3_3B,2000-01-01 00:00:10,2000-01-01 00:00:20";
}

//Switches, that would presumably make this three systems, eventually
object switch {
	name switch3_3B;
	phases ABCN;
	from node3;
	to node3B;
	status CLOSED;
}

object switch {
	name switch2B_2C;
	phases ABCN;
	from node2B;
	to node2C;
	status CLOSED;
}

//First system
object node {
	name node1;
	phases "ABCN";
	nominal_voltage 7199.558;
}

object overhead_line {
	name ol12;
	phases "ABCN";
	from node1;
	to node2;
	length 2000;
	configuration lc300;
}

object node {
	name node2;
	phases "ABCN";
	nominal_voltage 7199.558;
}

object transformer {
	name tran23;
	phases "ABCN";
	from node2;
	to node3;
	configuration tc400;
}

object node {
	name node3;
	phases "ABCN";
	nominal_voltage 2401.777;
}

object overhead_line {
	name ol34;
	phases "ABCN";
	from node3;
	to load4;
	length 2500;
	configuration lc300;
}

object load {
	name load4;
	phases "ABCN";
	constant_power_A 637500.0+395087.0155j;
	constant_power_B 900000.0+435889.8945j;
	constant_power_C 1187500.0+390312.375j;
	nominal_voltage 2401.777;
	object complex_assert {			//Eventgen switch event
		in '2000-01-01 00:00:10';
		out '2000-01-01 00:00:19';
		target "voltage_B";
		value 0.0;
		within 0.01;
	};
	object complex_assert {			//Player_1 toggle
		in '2000-01-01 00:00:30';
		out '2000-01-01 00:00:44';
		target "voltage_B";
		value 0.0;
		within 0.01;
	};
}

//Duplicate B
object node {
	name node1B;
	phases "ABCN";
	bustype SWING;
	nominal_voltage 7199.558;
}

object overhead_line {
	name ol12B;
	phases "ABCN";
	from node1B;
	to node2B;
	length 2000;
	configuration lc300;
}

object node {
	name node2B;
	phases "ABCN";
	nominal_voltage 7199.558;
}

object transformer {
	name tran23B;
	phases "ABCN";
	from node2B;
	to node3B;
	configuration tc400;
}

object node {
	name node3B;
	phases "ABCN";
	nominal_voltage 2401.777;
}

object overhead_line {
	name ol34B;
	phases "ABCN";
	from node3B;
	to load4B;
	length 2500;
	configuration lc300;
}

object load {
	name load4B;
	phases "ABCN";
	constant_power_A +537500.0+395087.0155j;
	constant_power_B +900250.0+435889.8945j;
	constant_power_C +1037500.0+390312.375j;
	nominal_voltage 2401.777;
}

//Duplicate C -- No swing here, so it should get removed
object node {
	name node1C;
	phases "ABCN";
	nominal_voltage 7199.558;
	object complex_assert {			//Player_2 status event
		in '2000-01-01 00:00:55';
		out '2000-01-01 00:01:14';
		target "voltage_B";
		value 0.0;
		within 0.01;
	};
}

object overhead_line {
	name ol12C;
	phases "ABCN";
	from node1C;
	to node2C;
	length 2000;
	configuration lc300;
}

object node {
	name node2C;
	phases "ABCN";
	nominal_voltage 7199.558;
}

object transformer {
	name tran23C;
	phases "ABCN";
	from node2C;
	to node3C;
	configuration tc400;
}

object node {
	name node3C;
	phases "ABCN";
	nominal_voltage 2401.777;
}

//Check underground too
object underground_line {
	name ug34C;
	phases "ABC";
	from node3C;
	to load4C;
	length 2500;
	configuration lc721;
}

object load {
	name load4C;
	phases "ABCN";
	constant_power_A +437500.0+395087.0155j;
	constant_power_B +400500.0+435889.8945j;
	constant_power_C +802500.0+390312.375j;
	nominal_voltage 2401.777;
	object complex_assert {			//Player_2 status event
		in '2000-01-01 00:00:55';
		out '2000-01-01 00:01:14';
		target "voltage_B";
		value 0.0;
		within 0.01;
	};
	object complex_assert {			//Player_3 status event
		in '2000-01-01 00:01:30';
		out '2000-01-01 00:01:49';
		target "voltage_B";
		value 0.0;
		within 0.01;
	};
}

//"disconnected" system
//Line switched out at the beginning - test initialization
object overhead_line {
	name init_removal_test;
	phases ABCN;
	from node2B;
	to node_removed;
	length 2000;
	status OPEN;
	configuration lc300;
}

object node {
	name node_removed;
	phases "ABCN";
	nominal_voltage 7199.558;
	object complex_assert {			//Should be out of service/zero the whole time
		target "voltage_B";
		value 0.0;
		within 0.01;
	};
}	

//Players and recorders
object player {
	parent ol34;
	property status;
	file "../data_link_status_player_1.player";
}

object recorder {
	parent ol34;
	property status;
	file testout_status_link.csv;
	interval 1;
}

object player {
	parent switch2B_2C;
	property status;
	file "../data_link_status_player_2.player";
}

object player {
	parent ug34C;
	property status;
	file "../data_link_status_player_3.player";
}

// object group_recorder {
	// group "class=node";
	// interval 1;
	// property "voltage_B";
	// file "node_voltage_b.csv";
// }

// object group_recorder {
	// group "class=load";
	// interval 1;
	// property "voltage_B";
	// file "load_voltage_b.csv";
// }
